functions/OneTimeScripts/validationAgainstOpenDSS_MATLAB/ieee123_1ph_created/results/pv000_batt010/powers20.csv
Element, Terminal, P(kW), Q(kvar),  P_Normal, Q_Normal, P_Emergency, Q_Emergency
"Line.L115"             ,   1,      1158.4,       458.7,       260.3,       103.0,         0.0,         0.0
"Line.L115"             ,   2,     -1152.2,      -446.0
"Line.L1"               ,   1,         6.5,         3.2,         0.0,         0.0,         0.0,         0.0
"Line.L1"               ,   2,        -6.5,        -3.2
"Line.L2"               ,   1,        32.4,        16.2,         0.0,         0.0,         0.0,         0.0
"Line.L2"               ,   2,       -32.3,       -16.2
"Line.L3"               ,   1,      1100.5,       420.1,       205.5,        78.5,         0.0,         0.0
"Line.L3"               ,   2,     -1096.3,      -411.5
"Line.L4"               ,   1,        12.9,         6.5,         0.0,         0.0,         0.0,         0.0
"Line.L4"               ,   2,       -12.9,        -6.5
"Line.L5"               ,   1,        19.4,         9.7,         0.0,         0.0,         0.0,         0.0
"Line.L5"               ,   2,       -19.4,        -9.7
"Line.L6"               ,   1,        12.9,         6.5,         0.0,         0.0,         0.0,         0.0
"Line.L6"               ,   2,       -12.9,        -6.5
"Line.L7"               ,   1,      1089.8,       408.3,       198.1,        74.2,         0.0,         0.0
"Line.L7"               ,   2,     -1087.0,      -402.6
"Line.L8"               ,   1,         6.5,         3.2,         0.0,         0.0,         0.0,         0.0
"Line.L8"               ,   2,        -6.5,        -3.2
"Line.L9"               ,   1,        32.4,        16.2,         0.0,         0.0,         0.0,         0.0
"Line.L9"               ,   2,       -32.3,       -16.2
"Line.L10"              ,   1,      1048.2,       383.2,       157.3,        57.5,         0.0,         0.0
"Line.L10"              ,   2,     -1044.4,      -375.3
"Line.L11"              ,   1,        19.4,         9.7,         0.0,         0.0,         0.0,         0.0
"Line.L11"              ,   2,       -19.4,        -9.7
"Line.L12"              ,   1,        32.3,        16.2,         0.0,         0.0,         0.0,         0.0
"Line.L12"              ,   2,       -32.3,       -16.2
"Line.L13"              ,   1,       363.1,       215.3,         0.0,         0.0,         0.0,         0.0
"Line.L13"              ,   2,      -361.5,      -212.1
"Line.L14"              ,   1,        12.9,         6.5,         0.0,         0.0,         0.0,         0.0
"Line.L14"              ,   2,       -12.9,        -6.5
"Line.L15"              ,   1,         6.5,         3.2,         0.0,         0.0,         0.0,         0.0
"Line.L15"              ,   2,        -6.5,        -3.2
"Line.L16"              ,   1,        12.9,         6.5,         0.0,         0.0,         0.0,         0.0
"Line.L16"              ,   2,       -12.9,        -6.5
"Line.L17"              ,   1,         6.5,         3.2,         0.0,         0.0,         0.0,         0.0
"Line.L17"              ,   2,        -6.5,        -3.2
"Line.L18"              ,   1,        25.9,        12.9,         0.0,         0.0,         0.0,         0.0
"Line.L18"              ,   2,       -25.9,       -12.9
"Line.L19"              ,   1,        90.6,        45.4,         0.0,         0.0,         0.0,         0.0
"Line.L19"              ,   2,       -90.6,       -45.4
"Line.L20"              ,   1,        12.9,         6.5,         0.0,         0.0,         0.0,         0.0
"Line.L20"              ,   2,       -12.9,        -6.5
"Line.L21"              ,   1,        12.9,         6.5,         0.0,         0.0,         0.0,         0.0
"Line.L21"              ,   2,       -12.9,        -6.5
"Line.L22"              ,   1,        77.7,        38.9,         0.0,         0.0,         0.0,         0.0
"Line.L22"              ,   2,       -77.6,       -38.8
"Line.L23"              ,   1,        12.9,         6.5,         0.0,         0.0,         0.0,         0.0
"Line.L23"              ,   2,       -12.9,        -6.5
"Line.L24"              ,   1,        64.7,        32.4,         0.0,         0.0,         0.0,         0.0
"Line.L24"              ,   2,       -64.7,       -32.3
"Line.L25"              ,   1,        25.9,        12.9,         0.0,         0.0,         0.0,         0.0
"Line.L25"              ,   2,       -25.9,       -12.9
"Line.L26"              ,   1,        38.8,        19.4,         0.0,         0.0,         0.0,         0.0
"Line.L26"              ,   2,       -38.8,       -19.4
"Line.L27"              ,   1,        12.9,         6.5,         0.0,         0.0,         0.0,         0.0
"Line.L27"              ,   2,       -12.9,        -6.5
"Line.L28"              ,   1,        12.9,         6.5,         0.0,         0.0,         0.0,         0.0
"Line.L28"              ,   2,       -12.9,        -6.5
"Line.L29"              ,   1,        12.9,         6.5,         0.0,         0.0,         0.0,         0.0
"Line.L29"              ,   2,       -12.9,        -6.5
"Line.L30"              ,   1,        25.9,        12.9,         0.0,         0.0,         0.0,         0.0
"Line.L30"              ,   2,       -25.9,       -12.9
"Line.L31"              ,   1,        12.9,         6.5,         0.0,         0.0,         0.0,         0.0
"Line.L31"              ,   2,       -12.9,        -6.5
"Line.L32"              ,   1,         0.0,        -0.0,         0.0,         0.0,         0.0,         0.0
"Line.L32"              ,   2,         0.0,        -0.0
"Line.L33"              ,   1,         6.5,         3.2,         0.0,         0.0,         0.0,         0.0
"Line.L33"              ,   2,        -6.5,        -3.2
"Line.L34"              ,   1,        19.4,         9.7,         0.0,         0.0,         0.0,         0.0
"Line.L34"              ,   2,       -19.4,        -9.7
"Line.L35"              ,   1,        25.9,        12.9,         0.0,         0.0,         0.0,         0.0
"Line.L35"              ,   2,       -25.9,       -12.9
"Line.L36"              ,   1,       205.9,       133.7,         0.0,         0.0,         0.0,         0.0
"Line.L36"              ,   2,      -205.7,      -133.3
"Line.L37"              ,   1,        12.9,         6.5,         0.0,         0.0,         0.0,         0.0
"Line.L37"              ,   2,       -12.9,        -6.5
"Line.L38"              ,   1,        12.9,         6.5,         0.0,         0.0,         0.0,         0.0
"Line.L38"              ,   2,       -12.9,        -6.5
"Line.L39"              ,   1,         6.5,         3.2,         0.0,         0.0,         0.0,         0.0
"Line.L39"              ,   2,        -6.5,        -3.2
"Line.L40"              ,   1,         6.5,         3.2,         0.0,         0.0,         0.0,         0.0
"Line.L40"              ,   2,        -6.5,        -3.2
"Line.L41"              ,   1,       199.2,       130.1,         0.0,         0.0,         0.0,         0.0
"Line.L41"              ,   2,      -199.1,      -129.8
"Line.L42"              ,   1,        12.9,         6.5,         0.0,         0.0,         0.0,         0.0
"Line.L42"              ,   2,       -12.9,        -6.5
"Line.L43"              ,   1,       179.7,       120.1,         0.0,         0.0,         0.0,         0.0
"Line.L43"              ,   2,      -179.6,      -119.9
"Line.L44"              ,   1,        12.9,         6.5,         0.0,         0.0,         0.0,         0.0
"Line.L44"              ,   2,       -12.9,        -6.5
"Line.L45"              ,   1,       166.7,       113.4,         0.0,         0.0,         0.0,         0.0
"Line.L45"              ,   2,      -166.5,      -113.2
"Line.L46"              ,   1,         6.5,         3.2,         0.0,         0.0,         0.0,         0.0
"Line.L46"              ,   2,        -6.5,        -3.2
"Line.L47"              ,   1,        67.9,        48.5,         0.0,         0.0,         0.0,         0.0
"Line.L47"              ,   2,       -67.9,       -48.5
"Line.L48"              ,   1,        64.7,        40.4,         0.0,         0.0,         0.0,         0.0
"Line.L48"              ,   2,       -64.7,       -40.4
"Line.L49"              ,   1,        19.4,         9.7,         0.0,         0.0,         0.0,         0.0
"Line.L49"              ,   2,       -19.4,        -9.7
"Line.L50"              ,   1,         6.5,         3.2,         0.0,         0.0,         0.0,         0.0
"Line.L50"              ,   2,        -6.5,        -3.2
"Line.L51"              ,   1,         0.0,        -0.0,         0.0,         0.0,         0.0,         0.0
"Line.L51"              ,   2,         0.0,         0.0
"Line.L52"              ,   1,       634.2,       133.6,         0.0,         0.0,         0.0,         0.0
"Line.L52"              ,   2,      -633.3,      -131.8
"Line.L53"              ,   1,       620.4,       125.4,         0.0,         0.0,         0.0,         0.0
"Line.L53"              ,   2,      -619.8,      -124.3
"Line.L54"              ,   1,        12.9,         6.5,         0.0,         0.0,         0.0,         0.0
"Line.L54"              ,   2,       -12.9,        -6.5
"Line.L55"              ,   1,       606.9,       117.8,         0.0,         0.0,         0.0,         0.0
"Line.L55"              ,   2,      -605.5,      -114.9
"Line.L56"              ,   1,         6.5,         3.2,         0.0,         0.0,         0.0,         0.0
"Line.L56"              ,   2,        -6.5,        -3.2
"Line.L57"              ,   1,        12.9,         6.5,         0.0,         0.0,         0.0,         0.0
"Line.L57"              ,   2,       -12.9,        -6.5
"Line.L58"              ,   1,       592.6,       108.5,         0.0,         0.0,         0.0,         0.0
"Line.L58"              ,   2,      -589.7,      -102.5
"Line.L59"              ,   1,         6.5,         3.2,         0.0,         0.0,         0.0,         0.0
"Line.L59"              ,   2,        -6.5,        -3.2
"Line.L60"              ,   1,         0.0,        -0.0,         0.0,         0.0,         0.0,         0.0
"Line.L60"              ,   2,        -0.0,         0.0
"Line.L61"              ,   1,       120.2,        68.0,         0.0,         0.0,         0.0,         0.0
"Line.L61"              ,   2,      -120.0,       -68.0
"Line.L62"              ,   1,       107.1,        61.5,         0.0,         0.0,         0.0,         0.0
"Line.L62"              ,   2,      -107.0,       -61.5
"Line.L63"              ,   1,        94.0,        55.0,         0.0,         0.0,         0.0,         0.0
"Line.L63"              ,   2,       -93.9,       -55.0
"Line.L64"              ,   1,        69.6,        43.7,         0.0,         0.0,         0.0,         0.0
"Line.L64"              ,   2,       -69.5,       -43.6
"Line.L65"              ,   1,        24.3,        11.3,         0.0,         0.0,         0.0,         0.0
"Line.L65"              ,   2,       -24.2,       -11.3
"Line.L66"              ,   1,        38.8,        19.4,         0.0,         0.0,         0.0,         0.0
"Line.L66"              ,   2,       -38.8,       -19.4
"Line.L67"              ,   1,       280.8,       -61.5,         0.0,         0.0,         0.0,         0.0
"Line.L67"              ,   2,      -280.5,        62.0
"Line.L68"              ,   1,       142.6,        71.6,         0.0,         0.0,         0.0,         0.0
"Line.L68"              ,   2,      -142.5,       -71.4
"Line.L69"              ,   1,        32.4,        16.2,         0.0,         0.0,         0.0,         0.0
"Line.L69"              ,   2,       -32.3,       -16.2
"Line.L70"              ,   1,        19.4,         9.7,         0.0,         0.0,         0.0,         0.0
"Line.L70"              ,   2,       -19.4,        -9.7
"Line.L71"              ,   1,        12.9,         6.5,         0.0,         0.0,         0.0,         0.0
"Line.L71"              ,   2,       -12.9,        -6.5
"Line.L72"              ,   1,        38.8,        19.4,         0.0,         0.0,         0.0,         0.0
"Line.L72"              ,   2,       -38.8,       -19.4
"Line.L73"              ,   1,       241.7,       -81.5,         0.0,         0.0,         0.0,         0.0
"Line.L73"              ,   2,      -241.5,        81.8
"Line.L74"              ,   1,        25.9,        12.9,         0.0,         0.0,         0.0,         0.0
"Line.L74"              ,   2,       -25.9,       -12.9
"Line.L75"              ,   1,        12.9,         6.5,         0.0,         0.0,         0.0,         0.0
"Line.L75"              ,   2,       -12.9,        -6.5
"Line.L76"              ,   1,        78.1,      -138.2,         0.0,         0.0,         0.0,         0.0
"Line.L76"              ,   2,       -78.0,       138.5
"Line.L77"              ,   1,        84.2,        -1.7,         0.0,         0.0,         0.0,         0.0
"Line.L77"              ,   2,       -84.1,         1.8
"Line.L78"              ,   1,        65.1,      -144.9,         0.0,         0.0,         0.0,         0.0
"Line.L78"              ,   2,       -65.0,       145.0
"Line.L79"              ,   1,        12.9,         6.5,         0.0,         0.0,         0.0,         0.0
"Line.L79"              ,   2,       -12.9,        -6.5
"Line.L80"              ,   1,        52.1,      -151.5,         0.0,         0.0,         0.0,         0.0
"Line.L80"              ,   2,       -52.0,       151.8
"Line.L81"              ,   1,        39.0,      -158.2,         0.0,         0.0,         0.0,         0.0
"Line.L81"              ,   2,       -39.0,       158.3
"Line.L82"              ,   1,        19.6,      -168.0,         0.0,         0.0,         0.0,         0.0
"Line.L82"              ,   2,       -19.5,       168.2
"Line.L83"              ,   1,        19.4,         9.7,         0.0,         0.0,         0.0,         0.0
"Line.L83"              ,   2,       -19.4,        -9.7
"Line.L84"              ,   1,         6.6,      -174.7,         0.0,         0.0,         0.0,         0.0
"Line.L84"              ,   2,        -6.5,       174.9
"Line.L85"              ,   1,        12.9,         6.5,         0.0,         0.0,         0.0,         0.0
"Line.L85"              ,   2,       -12.9,        -6.5
"Line.L86"              ,   1,        77.7,        -5.1,         0.0,         0.0,         0.0,         0.0
"Line.L86"              ,   2,       -77.6,         5.1
"Line.L87"              ,   1,        12.9,        -8.2,         0.0,         0.0,         0.0,         0.0
"Line.L87"              ,   2,       -12.9,         8.2
"Line.L88"              ,   1,        51.8,        -3.4,         0.0,         0.0,         0.0,         0.0
"Line.L88"              ,   2,       -51.7,         3.4
"Line.L89"              ,   1,        12.9,        -8.2,         0.0,         0.0,         0.0,         0.0
"Line.L89"              ,   2,       -12.9,         8.2
"Line.L90"              ,   1,        38.8,         4.8,         0.0,         0.0,         0.0,         0.0
"Line.L90"              ,   2,       -38.8,        -4.8
"Line.L91"              ,   1,        12.9,        -8.2,         0.0,         0.0,         0.0,         0.0
"Line.L91"              ,   2,       -12.9,         8.2
"Line.L92"              ,   1,        25.9,        12.9,         0.0,         0.0,         0.0,         0.0
"Line.L92"              ,   2,       -25.9,       -12.9
"Line.L93"              ,   1,        12.9,         6.5,         0.0,         0.0,         0.0,         0.0
"Line.L93"              ,   2,       -12.9,        -6.5
"Line.L94"              ,   1,        12.9,         6.5,         0.0,         0.0,         0.0,         0.0
"Line.L94"              ,   2,       -12.9,        -6.5
"Line.L95"              ,   1,         6.5,         3.2,         0.0,         0.0,         0.0,         0.0
"Line.L95"              ,   2,        -6.5,        -3.2
"Line.L96"              ,   1,        38.8,        19.4,         0.0,         0.0,         0.0,         0.0
"Line.L96"              ,   2,       -38.8,       -19.4
"Line.L97"              ,   1,        25.9,        12.9,         0.0,         0.0,         0.0,         0.0
"Line.L97"              ,   2,       -25.9,       -12.9
"Line.L98"              ,   1,        12.9,         6.5,         0.0,         0.0,         0.0,         0.0
"Line.L98"              ,   2,       -12.9,        -6.5
"Line.L99"              ,   1,         0.0,        -0.0,         0.0,         0.0,         0.0,         0.0
"Line.L99"              ,   2,        -0.0,         0.0
"Line.L118"             ,   1,       103.7,        52.0,         0.0,         0.0,         0.0,         0.0
"Line.L118"             ,   2,      -103.6,       -51.9
"Line.L100"             ,   1,        32.4,        16.2,         0.0,         0.0,         0.0,         0.0
"Line.L100"             ,   2,       -32.4,       -16.2
"Line.L101"             ,   1,        71.3,        35.7,         0.0,         0.0,         0.0,         0.0
"Line.L101"             ,   2,       -71.3,       -35.7
"Line.L102"             ,   1,        25.9,        13.0,         0.0,         0.0,         0.0,         0.0
"Line.L102"             ,   2,       -25.9,       -12.9
"Line.L103"             ,   1,        12.9,         6.5,         0.0,         0.0,         0.0,         0.0
"Line.L103"             ,   2,       -12.9,        -6.5
"Line.L104"             ,   1,        25.9,        12.9,         0.0,         0.0,         0.0,         0.0
"Line.L104"             ,   2,       -25.9,       -12.9
"Line.L105"             ,   1,        45.4,        22.7,         0.0,         0.0,         0.0,         0.0
"Line.L105"             ,   2,       -45.4,       -22.7
"Line.L106"             ,   1,        12.9,         6.5,         0.0,         0.0,         0.0,         0.0
"Line.L106"             ,   2,       -12.9,        -6.5
"Line.L107"             ,   1,        45.4,        22.7,         0.0,         0.0,         0.0,         0.0
"Line.L107"             ,   2,       -45.3,       -22.7
"Line.L108"             ,   1,         0.0,        -0.0,         0.0,         0.0,         0.0,         0.0
"Line.L108"             ,   2,         0.0,        -0.0
"Line.L109"             ,   1,        32.4,        16.2,         0.0,         0.0,         0.0,         0.0
"Line.L109"             ,   2,       -32.4,       -16.2
"Line.L110"             ,   1,         6.5,         3.2,         0.0,         0.0,         0.0,         0.0
"Line.L110"             ,   2,        -6.5,        -3.2
"Line.L111"             ,   1,        25.9,        12.9,         0.0,         0.0,         0.0,         0.0
"Line.L111"             ,   2,       -25.9,       -12.9
"Line.L112"             ,   1,        19.4,         9.7,         0.0,         0.0,         0.0,         0.0
"Line.L112"             ,   2,       -19.4,        -9.7
"Line.L113"             ,   1,         6.5,         3.2,         0.0,         0.0,         0.0,         0.0
"Line.L113"             ,   2,        -6.5,        -3.2
"Line.L114"             ,   1,       245.0,       153.8,         0.0,         0.0,         0.0,         0.0
"Line.L114"             ,   2,      -244.7,      -153.1
"Line.L116"             ,   1,       649.0,       143.9,         0.0,         0.0,         0.0,         0.0
"Line.L116"             ,   2,      -647.1,      -140.1
"Line.L117"             ,   1,       463.0,        31.2,         0.0,         0.0,         0.0,         0.0
"Line.L117"             ,   2,      -462.2,       -29.5
"Line.SW1"              ,   1,      1158.4,       458.7,       260.3,       103.0,         0.0,         0.0
"Line.SW1"              ,   2,     -1158.4,      -458.7
"Line.SW2"              ,   1,       649.0,       143.9,         0.0,         0.0,         0.0,         0.0
"Line.SW2"              ,   2,      -649.0,      -143.9
"Line.SW3"              ,   1,       245.0,       153.8,         0.0,         0.0,         0.0,         0.0
"Line.SW3"              ,   2,      -245.0,      -153.8
"Line.SW4"              ,   1,       463.0,        31.2,         0.0,         0.0,         0.0,         0.0
"Line.SW4"              ,   2,      -463.0,       -31.2
"Line.SW5"              ,   1,       103.7,        52.0,         0.0,         0.0,         0.0,         0.0
"Line.SW5"              ,   2,      -103.7,       -52.0
"Line.XFM1"             ,   1,         0.0,         0.0,         0.0,         0.0,         0.0,         0.0
"Line.XFM1"             ,   2,         0.0,         0.0
"Capacitor.C83"         ,   1,         0.0,      -178.1,         0.0,         0.0,         0.0,         0.0
"Capacitor.C83"         ,   2,         0.0,         0.0
"Capacitor.C88"         ,   1,         0.0,       -14.7,         0.0,         0.0,         0.0,         0.0
"Capacitor.C88"         ,   2,         0.0,         0.0
"Capacitor.C90"         ,   1,         0.0,       -14.7,         0.0,         0.0,         0.0,         0.0
"Capacitor.C90"         ,   2,         0.0,         0.0
"Capacitor.C92"         ,   1,         0.0,       -14.7,         0.0,         0.0,         0.0,         0.0
"Capacitor.C92"         ,   2,         0.0,         0.0
"Transformer.REG1A"     ,   1,      1158.4,       458.7,         0.0,         0.0,         0.0,         0.0
"Transformer.REG1A"     ,   2,     -1158.4,      -458.7
"Transformer.REG2A"     ,   1,        19.4,         9.7,         0.0,         0.0,         0.0,         0.0
"Transformer.REG2A"     ,   2,       -19.4,        -9.7
"Transformer.REG3A"     ,   1,        25.9,        12.9,         0.0,         0.0,         0.0,         0.0
"Transformer.REG3A"     ,   2,       -25.9,       -12.9
"Transformer.REG4A"     ,   1,       463.0,        31.2,         0.0,         0.0,         0.0,         0.0
"Transformer.REG4A"     ,   2,      -463.0,       -31.2
"Load.S1"               ,   1,        12.9,         6.5
"Load.S2"               ,   1,         6.5,         3.2
"Load.S4"               ,   1,        12.9,         6.5
"Load.S5"               ,   1,         6.5,         3.2
"Load.S6"               ,   1,        12.9,         6.5
"Load.S7"               ,   1,         6.5,         3.2
"Load.S9"               ,   1,        12.9,         6.5
"Load.S10"              ,   1,         6.5,         3.2
"Load.S11"              ,   1,        12.9,         6.5
"Load.S12"              ,   1,         6.5,         3.2
"Load.S16"              ,   1,        12.9,         6.5
"Load.S17"              ,   1,         6.5,         3.2
"Load.S19"              ,   1,        12.9,         6.5
"Load.S20"              ,   1,        12.9,         6.5
"Load.S22"              ,   1,        12.9,         6.5
"Load.S24"              ,   1,        12.9,         6.5
"Load.S28"              ,   1,        12.9,         6.5
"Load.S29"              ,   1,        12.9,         6.5
"Load.S30"              ,   1,        12.9,         6.5
"Load.S31"              ,   1,         6.5,         3.2
"Load.S32"              ,   1,         6.5,         3.2
"Load.S33"              ,   1,        12.9,         6.5
"Load.S34"              ,   1,        12.9,         6.5
"Load.S35"              ,   1,        12.9,         6.5
"Load.S37"              ,   1,        12.9,         6.5
"Load.S38"              ,   1,         6.5,         3.2
"Load.S39"              ,   1,         6.5,         3.2
"Load.S41"              ,   1,         6.5,         3.2
"Load.S42"              ,   1,         6.5,         3.2
"Load.S43"              ,   1,        12.9,         6.5
"Load.S45"              ,   1,         6.5,         3.2
"Load.S46"              ,   1,         6.5,         3.2
"Load.S47"              ,   1,        33.9,        24.2
"Load.S48"              ,   1,        67.9,        48.5
"Load.S49"              ,   1,        45.3,        30.7
"Load.S50"              ,   1,        12.9,         6.5
"Load.S51"              ,   1,         6.5,         3.2
"Load.S52"              ,   1,        12.9,         6.5
"Load.S53"              ,   1,        12.9,         6.5
"Load.S55"              ,   1,         6.5,         3.2
"Load.S56"              ,   1,         6.5,         3.2
"Load.S58"              ,   1,         6.5,         3.2
"Load.S59"              ,   1,         6.5,         3.2
"Load.S60"              ,   1,         6.5,         3.2
"Load.S62"              ,   1,        12.9,         6.5
"Load.S63"              ,   1,        12.9,         6.5
"Load.S64"              ,   1,        24.2,        11.3
"Load.S65"              ,   1,        45.3,        32.3
"Load.S66"              ,   1,        24.2,        11.3
"Load.S68"              ,   1,         6.5,         3.2
"Load.S69"              ,   1,        12.9,         6.5
"Load.S70"              ,   1,         6.5,         3.2
"Load.S71"              ,   1,        12.9,         6.5
"Load.S73"              ,   1,        12.9,         6.5
"Load.S74"              ,   1,        12.9,         6.5
"Load.S75"              ,   1,        12.9,         6.5
"Load.S76"              ,   1,        79.2,        58.2
"Load.S77"              ,   1,        12.9,         6.5
"Load.S79"              ,   1,        12.9,         6.5
"Load.S80"              ,   1,        12.9,         6.5
"Load.S82"              ,   1,        12.9,         6.5
"Load.S83"              ,   1,         6.5,         3.2
"Load.S84"              ,   1,         6.5,         3.2
"Load.S85"              ,   1,        12.9,         6.5
"Load.S86"              ,   1,         6.5,         3.2
"Load.S87"              ,   1,        12.9,         6.5
"Load.S88"              ,   1,        12.9,         6.5
"Load.S90"              ,   1,        12.9,         6.5
"Load.S92"              ,   1,        12.9,         6.5
"Load.S94"              ,   1,        12.9,         6.5
"Load.S95"              ,   1,         6.5,         3.2
"Load.S96"              ,   1,         6.5,         3.2
"Load.S98"              ,   1,        12.9,         6.5
"Load.S99"              ,   1,        12.9,         6.5
"Load.S100"             ,   1,        12.9,         6.5
"Load.S102"             ,   1,         6.5,         3.2
"Load.S103"             ,   1,        12.9,         6.5
"Load.S104"             ,   1,        12.9,         6.5
"Load.S106"             ,   1,        12.9,         6.5
"Load.S107"             ,   1,        12.9,         6.5
"Load.S109"             ,   1,        12.9,         6.5
"Load.S111"             ,   1,         6.5,         3.2
"Load.S112"             ,   1,         6.5,         3.2
"Load.S113"             ,   1,        12.9,         6.5
"Load.S114"             ,   1,         6.5,         3.2
"Storage.BATTERY9"      ,   1,         0.0,         0.0
"Storage.BATTERY28"     ,   1,         0.0,         0.0
"Storage.BATTERY48"     ,   1,         0.0,         0.0
"Storage.BATTERY58"     ,   1,         0.0,         0.0
"Storage.BATTERY65"     ,   1,         0.0,         0.0
"Storage.BATTERY76"     ,   1,         0.0,         0.0
"Storage.BATTERY87"     ,   1,         0.0,         0.0
"Storage.BATTERY100"    ,   1,         0.0,         0.0
